! Imported from LoadShapes.txt, with modified directory
! --------------------------------------------------------------------------------------------------------------

! In this context useactual doesn't really matter, all the loads are 1KW so multiplying or using the actual value doesn't matter
New Loadshape.Shape_1 npts=288 interval=0.0833 mult=(file=../../load_profiles/Load1_5min.csv) useactual=false
New Loadshape.Shape_2 npts=288 interval=0.0833 mult=(file=../../load_profiles/Load2_5min.csv) useactual=false
New Loadshape.Shape_3 npts=288 interval=0.0833 mult=(file=../../load_profiles/Load3_5min.csv) useactual=false
New Loadshape.Shape_4 npts=288 interval=0.0833 mult=(file=../../load_profiles/Load4_5min.csv) useactual=false
! --------------------------------------------------------------------------------------------------------------